data/IEEETestCases/IEEE118Bus/ieee118bus_VLN_Node.Txt

LINE-GROUND and LINE-LINE VOLTAGES BY BUS & NODE

Bus          Node    VLN (kV)   Angle      pu     Base kV    Node-Node   VLL (kV)  Angle      pu

89_CLINCHRV  1       80.073 /_   39.7     1.005   138.000        1-2     138.69 /_   69.7     1.005
   -         2       80.073 /_  -80.3     1.005   138.000        2-3     138.69 /_  -50.3     1.005
   -         3       80.073 /_  159.7     1.005   138.000        3-1     138.69 /_ -170.3     1.005
1_RIVERSDE . 1       76.089 /_   10.9     0.955   138.000        1-2     131.79 /_   40.9     0.955
   -         2       76.089 /_ -109.1     0.955   138.000        2-3     131.79 /_  -79.1     0.955
   -         3       76.089 /_  130.9     0.955   138.000        3-1     131.79 /_  160.9     0.955
4_NWCARLSL . 1       79.515 /_   15.5     0.998   138.000        1-2     137.72 /_   45.5     0.998
   -         2       79.515 /_ -104.5     0.998   138.000        2-3     137.72 /_  -74.5     0.998
   -         3       79.515 /_  135.5     0.998   138.000        3-1     137.72 /_  165.5     0.998
6_KANKAKEE . 1       78.878 /_   13.2      0.99   138.000        1-2     136.62 /_   43.2      0.99
   -         2       78.878 /_ -106.8      0.99   138.000        2-3     136.62 /_  -76.8      0.99
   -         3       78.878 /_  133.2      0.99   138.000        3-1     136.62 /_  163.2      0.99
8_OLIVE .... 1       80.869 /_   21.0     1.015   138.000        1-2     140.07 /_   51.0     1.015
   -         2       80.869 /_  -99.0     1.015   138.000        2-3     140.07 /_  -69.0     1.015
   -         3       80.869 /_  141.0     1.015   138.000        3-1     140.07 /_  171.0     1.015
10_BREED ... 1       83.658 /_   35.8      1.05   138.000        1-2      144.9 /_   65.8      1.05
   -         2       83.658 /_  -84.2      1.05   138.000        2-3      144.9 /_  -54.2      1.05
   -         3       83.658 /_  155.8      1.05   138.000        3-1      144.9 /_ -174.2      1.05
12_TWINBRCH  1       78.878 /_   12.4      0.99   138.000        1-2     136.62 /_   42.4      0.99
   -         2       78.878 /_ -107.6      0.99   138.000        2-3     136.62 /_  -77.6      0.99
   -         3       78.878 /_  132.4      0.99   138.000        3-1     136.62 /_  162.4      0.99
15_FTWAYNE . 1       77.284 /_   11.4      0.97   138.000        1-2     133.86 /_   41.4      0.97
   -         2       77.284 /_ -108.6      0.97   138.000        2-3     133.86 /_  -78.6      0.97
   -         3       77.284 /_  131.4      0.97   138.000        3-1     133.86 /_  161.4      0.97
18_MCKINLEY  1       77.523 /_   11.7     0.973   138.000        1-2     134.27 /_   41.7     0.973
   -         2       77.523 /_ -108.3     0.973   138.000        2-3     134.27 /_  -78.3     0.973
   -         3       77.523 /_  131.7     0.973   138.000        3-1     134.27 /_  161.7     0.973
19_LINCOLN . 1       76.761 /_   11.2   0.96343   138.000        1-2     132.95 /_   41.2   0.96343
   -         2       76.761 /_ -108.8   0.96343   138.000        2-3     132.95 /_  -78.8   0.96343
   -         3       76.761 /_  131.2   0.96343   138.000        3-1     132.95 /_  161.2   0.96343
24_TRENTON . 1       79.037 /_   21.1     0.992   138.000        1-2      136.9 /_   51.1     0.992
   -         2       79.037 /_  -98.9     0.992   138.000        2-3      136.9 /_  -68.9     0.992
   -         3       79.037 /_  141.1     0.992   138.000        3-1      136.9 /_  171.1     0.992
25_TANNRSCK  1       83.658 /_   28.1      1.05   138.000        1-2      144.9 /_   58.1      1.05
   -         2       83.658 /_  -91.9      1.05   138.000        2-3      144.9 /_  -61.9      1.05
   -         3       83.658 /_  148.1      1.05   138.000        3-1      144.9 /_  178.1      1.05
26_TANNRSCK  1       80.869 /_   29.9     1.015   138.000        1-2     140.07 /_   59.9     1.015
   -         2       80.869 /_  -90.1     1.015   138.000        2-3     140.07 /_  -60.1     1.015
   -         3       80.869 /_  149.9     1.015   138.000        3-1     140.07 /_  179.9     1.015
27_MADISON . 1       77.125 /_   15.5     0.968   138.000        1-2     133.58 /_   45.5     0.968
   -         2       77.125 /_ -104.5     0.968   138.000        2-3     133.58 /_  -74.5     0.968
   -         3       77.125 /_  135.5     0.968   138.000        3-1     133.58 /_  165.5     0.968
31_DEERCRK . 1       77.045 /_   12.9     0.967   138.000        1-2     133.45 /_   42.9     0.967
   -         2       77.045 /_ -107.1     0.967   138.000        2-3     133.45 /_  -77.1     0.967
   -         3       77.045 /_  132.9     0.967   138.000        3-1     133.45 /_  162.9     0.967
32_DELAWARE  1       76.773 /_   15.0   0.96359   138.000        1-2     132.98 /_   45.0   0.96359
   -         2       76.773 /_ -105.0   0.96359   138.000        2-3     132.98 /_  -75.0   0.96359
   -         3       76.773 /_  135.0   0.96359   138.000        3-1     132.98 /_  165.0   0.96359
34_ROCKHILL  1       78.548 /_   11.4   0.98586   138.000        1-2     136.05 /_   41.4   0.98586
   -         2       78.548 /_ -108.6   0.98586   138.000        2-3     136.05 /_  -78.6   0.98586
   -         3       78.548 /_  131.4   0.98586   138.000        3-1     136.05 /_  161.4   0.98586
36_STERLING  1       78.081 /_   11.0      0.98   138.000        1-2     135.24 /_   41.0      0.98
   -         2       78.081 /_ -109.0      0.98   138.000        2-3     135.24 /_  -79.0      0.98
   -         3       78.081 /_  131.0      0.98   138.000        3-1     135.24 /_  161.0      0.98
40_WESTEND . 1       77.284 /_    7.5      0.97   138.000        1-2     133.86 /_   37.5      0.97
   -         2       77.284 /_ -112.5      0.97   138.000        2-3     133.86 /_  -82.5      0.97
   -         3       77.284 /_  127.5      0.97   138.000        3-1     133.86 /_  157.5      0.97
42_HOWARD .. 1       78.479 /_    8.6     0.985   138.000        1-2     135.93 /_   38.6     0.985
   -         2       78.479 /_ -111.4     0.985   138.000        2-3     135.93 /_  -81.4     0.985
   -         3       78.479 /_  128.6     0.985   138.000        3-1     135.93 /_  158.6     0.985
46_WLANCST . 1       80.073 /_   18.5     1.005   138.000        1-2     138.69 /_   48.5     1.005
   -         2       80.073 /_ -101.5     1.005   138.000        2-3     138.69 /_  -71.5     1.005
   -         3       80.073 /_  138.5     1.005   138.000        3-1     138.69 /_  168.5     1.005
49_PHILO ... 1       81.666 /_   21.0     1.025   138.000        1-2     141.45 /_   51.0     1.025
   -         2       81.666 /_  -99.0     1.025   138.000        2-3     141.45 /_  -69.0     1.025
   -         3       81.666 /_  141.0     1.025   138.000        3-1     141.45 /_  171.0     1.025
54_TORREY .. 1       76.089 /_   15.3     0.955   138.000        1-2     131.79 /_   45.3     0.955
   -         2       76.089 /_ -104.7     0.955   138.000        2-3     131.79 /_  -74.7     0.955
   -         3       76.089 /_  135.3     0.955   138.000        3-1     131.79 /_  165.3     0.955
55_WAGENHLS  1        75.85 /_   15.0     0.952   138.000        1-2     131.38 /_   45.0     0.952
   -         2        75.85 /_ -105.0     0.952   138.000        2-3     131.38 /_  -75.0     0.952
   -         3        75.85 /_  135.0     0.952   138.000        3-1     131.38 /_  165.0     0.952
56_SUNNYSDE  1       76.009 /_   15.2     0.954   138.000        1-2     131.65 /_   45.2     0.954
   -         2       76.009 /_ -104.8     0.954   138.000        2-3     131.65 /_  -74.8     0.954
   -         3       76.009 /_  135.2     0.954   138.000        3-1     131.65 /_  165.2     0.954
59_TIDD .... 1       78.479 /_   19.4     0.985   138.000        1-2     135.93 /_   49.4     0.985
   -         2       78.479 /_ -100.6     0.985   138.000        2-3     135.93 /_  -70.6     0.985
   -         3       78.479 /_  139.4     0.985   138.000        3-1     135.93 /_  169.4     0.985
61_WKAMMER . 1       79.276 /_   24.1     0.995   138.000        1-2     137.31 /_   54.1     0.995
   -         2       79.276 /_  -95.9     0.995   138.000        2-3     137.31 /_  -65.9     0.995
   -         3       79.276 /_  144.1     0.995   138.000        3-1     137.31 /_  174.1     0.995
62_NATRIUM . 1       79.515 /_   23.4     0.998   138.000        1-2     137.72 /_   53.4     0.998
   -         2       79.515 /_  -96.6     0.998   138.000        2-3     137.72 /_  -66.6     0.998
   -         3       79.515 /_  143.4     0.998   138.000        3-1     137.72 /_  173.4     0.998
65_MUSKNGUM  1       80.073 /_   27.7     1.005   138.000        1-2     138.69 /_   57.7     1.005
   -         2       80.073 /_  -92.3     1.005   138.000        2-3     138.69 /_  -62.3     1.005
   -         3       80.073 /_  147.7     1.005   138.000        3-1     138.69 /_  177.7     1.005
66_MUSKNGUM  1       83.658 /_   27.5      1.05   138.000        1-2      144.9 /_   57.5      1.05
   -         2       83.658 /_  -92.5      1.05   138.000        2-3      144.9 /_  -62.5      1.05
   -         3       83.658 /_  147.5      1.05   138.000        3-1      144.9 /_  177.5      1.05
69_SPORN ... 1       82.463 /_   29.9     1.035   138.000        1-2     142.83 /_   59.9     1.035
   -         2       82.463 /_  -90.1     1.035   138.000        2-3     142.83 /_  -60.1     1.035
   -         3       82.463 /_  149.9     1.035   138.000        3-1     142.83 /_  179.9     1.035
70_PORTSMTH  1         78.4 /_   22.6     0.984   138.000        1-2     135.79 /_   52.6     0.984
   -         2         78.4 /_  -97.4     0.984   138.000        2-3     135.79 /_  -67.4     0.984
   -         3         78.4 /_  142.6     0.984   138.000        3-1     135.79 /_  172.6     0.984
72_HILLSBRO  1       78.081 /_   21.0      0.98   138.000        1-2     135.24 /_   51.0      0.98
   -         2       78.081 /_  -99.0      0.98   138.000        2-3     135.24 /_  -69.0      0.98
   -         3       78.081 /_  141.0      0.98   138.000        3-1     135.24 /_  171.0      0.98
73_SARGENTS  1       78.957 /_   21.9     0.991   138.000        1-2     136.76 /_   51.9     0.991
   -         2       78.957 /_  -98.1     0.991   138.000        2-3     136.76 /_  -68.1     0.991
   -         3       78.957 /_  141.9     0.991   138.000        3-1     136.76 /_  171.9     0.991
74_BELLEFNT  1       76.328 /_   21.6     0.958   138.000        1-2      132.2 /_   51.6     0.958
   -         2       76.328 /_  -98.4     0.958   138.000        2-3      132.2 /_  -68.4     0.958
   -         3       76.328 /_  141.6     0.958   138.000        3-1      132.2 /_  171.6     0.958
76_DARRAH .. 1       75.133 /_   21.7     0.943   138.000        1-2     130.13 /_   51.7     0.943
   -         2       75.133 /_  -98.3     0.943   138.000        2-3     130.13 /_  -68.3     0.943
   -         3       75.133 /_  141.7     0.943   138.000        3-1     130.13 /_  171.7     0.943
77_TURNER .. 1       80.152 /_   26.7     1.006   138.000        1-2     138.83 /_   56.7     1.006
   -         2       80.152 /_  -93.3     1.006   138.000        2-3     138.83 /_  -63.3     1.006
   -         3       80.152 /_  146.7     1.006   138.000        3-1     138.83 /_  176.7     1.006
80_CABINCRK  1       82.861 /_   28.9      1.04   138.000        1-2     143.52 /_   58.9      1.04
   -         2       82.861 /_  -91.1      1.04   138.000        2-3     143.52 /_  -61.1      1.04
   -         3       82.861 /_  148.9      1.04   138.000        3-1     143.52 /_  178.9      1.04
85_BEAVERCK  1       78.479 /_   32.5     0.985   138.000        1-2     135.93 /_   62.5     0.985
   -         2       78.479 /_  -87.5     0.985   138.000        2-3     135.93 /_  -57.5     0.985
   -         3       78.479 /_  152.5     0.985   138.000        3-1     135.93 /_ -177.5     0.985
87_PINEVLLE  1       80.869 /_   31.4     1.015   138.000        1-2     140.07 /_   61.4     1.015
   -         2       80.869 /_  -88.6     1.015   138.000        2-3     140.07 /_  -58.6     1.015
   -         3       80.869 /_  151.4     1.015   138.000        3-1     140.07 /_ -178.6     1.015
90_HOLSTON . 1       78.479 /_   33.3     0.985   138.000        1-2     135.93 /_   63.3     0.985
   -         2       78.479 /_  -86.7     0.985   138.000        2-3     135.93 /_  -56.7     0.985
   -         3       78.479 /_  153.3     0.985   138.000        3-1     135.93 /_ -176.7     0.985
91_HOLSTONT  1       78.081 /_   33.3      0.98   138.000        1-2     135.24 /_   63.3      0.98
   -         2       78.081 /_  -86.7      0.98   138.000        2-3     135.24 /_  -56.7      0.98
   -         3       78.081 /_  153.3      0.98   138.000        3-1     135.24 /_ -176.7      0.98
92_SALTVLLE  1       79.059 /_   33.8   0.99228   138.000        1-2     136.93 /_   63.8   0.99228
   -         2       79.059 /_  -86.2   0.99228   138.000        2-3     136.93 /_  -56.2   0.99228
   -         3       79.059 /_  153.8   0.99228   138.000        3-1     136.93 /_ -176.2   0.99228
99_HINTON .. 1       80.471 /_   27.0      1.01   138.000        1-2     139.38 /_   57.0      1.01
   -         2       80.471 /_  -93.0      1.01   138.000        2-3     139.38 /_  -63.0      1.01
   -         3       80.471 /_  147.0      1.01   138.000        3-1     139.38 /_  177.0      1.01
100_GLENLYN  1       81.029 /_   28.0     1.017   138.000        1-2     140.35 /_   58.0     1.017
   -         2       81.029 /_  -92.0     1.017   138.000        2-3     140.35 /_  -62.0     1.017
   -         3       81.029 /_  148.0     1.017   138.000        3-1     140.35 /_  178.0     1.017
103_CLAYTOR  1       79.731 /_   24.4    1.0007   138.000        1-2      138.1 /_   54.4    1.0007
   -         2       79.731 /_  -95.6    1.0007   138.000        2-3      138.1 /_  -65.6    1.0007
   -         3       79.731 /_  144.4    1.0007   138.000        3-1      138.1 /_  174.4    1.0007
104_HANCOCK  1       77.364 /_   21.7     0.971   138.000        1-2        134 /_   51.7     0.971
   -         2       77.364 /_  -98.3     0.971   138.000        2-3        134 /_  -68.3     0.971
   -         3       77.364 /_  141.7     0.971   138.000        3-1        134 /_  171.7     0.971
105_ROANOKE  1       76.965 /_   20.6   0.96599   138.000        1-2     133.31 /_   50.6   0.96599
   -         2       76.965 /_  -99.4   0.96599   138.000        2-3     133.31 /_  -69.4   0.96599
   -         3       76.965 /_  140.6   0.96599   138.000        3-1     133.31 /_  170.6   0.96599
107_REUSENS  1        75.85 /_   17.5     0.952   138.000        1-2     131.38 /_   47.5     0.952
   -         2        75.85 /_ -102.5     0.952   138.000        2-3     131.38 /_  -72.5     0.952
   -         3        75.85 /_  137.5     0.952   138.000        3-1     131.38 /_  167.5     0.952
110_FIELDALE 1       77.523 /_   18.1     0.973   138.000        1-2     134.27 /_   48.1     0.973
   -         2       77.523 /_ -101.9     0.973   138.000        2-3     134.27 /_  -71.9     0.973
   -         3       77.523 /_  138.1     0.973   138.000        3-1     134.27 /_  168.1     0.973
111_DANRIVER 1       78.081 /_   19.7      0.98   138.000        1-2     135.24 /_   49.7      0.98
   -         2       78.081 /_ -100.3      0.98   138.000        2-3     135.24 /_  -70.3      0.98
   -         3       78.081 /_  139.7      0.98   138.000        3-1     135.24 /_  169.7      0.98
112_DANVILLE 1       77.682 /_   15.0     0.975   138.000        1-2     134.55 /_   45.0     0.975
   -         2       77.682 /_ -105.0     0.975   138.000        2-3     134.55 /_  -75.0     0.975
   -         3       77.682 /_  135.0     0.975   138.000        3-1     134.55 /_  165.0     0.975
113_DEERCRK  1       79.117 /_   13.9     0.993   138.000        1-2     137.03 /_   43.9     0.993
   -         2       79.117 /_ -106.1     0.993   138.000        2-3     137.03 /_  -76.1     0.993
   -         3       79.117 /_  133.9     0.993   138.000        3-1     137.03 /_  163.9     0.993
116_KYGERCRK 1       80.073 /_   27.1     1.005   138.000        1-2     138.69 /_   57.1     1.005
   -         2       80.073 /_  -92.9     1.005   138.000        2-3     138.69 /_  -62.9     1.005
   -         3       80.073 /_  147.1     1.005   138.000        3-1     138.69 /_  177.1     1.005
2_POKAGON .. 1       77.395 /_   11.5   0.97139   138.000        1-2     134.05 /_   41.5   0.97139
   -         2       77.395 /_ -108.5   0.97139   138.000        2-3     134.05 /_  -78.5   0.97139
   -         3       77.395 /_  131.5   0.97139   138.000        3-1     134.05 /_  161.5   0.97139
3_HICKRYCK . 1         77.1 /_   11.8   0.96769   138.000        1-2     133.54 /_   41.8   0.96769
   -         2         77.1 /_ -108.2   0.96769   138.000        2-3     133.54 /_  -78.2   0.96769
   -         3         77.1 /_  131.8   0.96769   138.000        3-1     133.54 /_  161.8   0.96769
5_OLIVE .... 1       79.832 /_   16.0     1.002   138.000        1-2     138.27 /_   46.0     1.002
   -         2       79.832 /_ -104.0     1.002   138.000        2-3     138.27 /_  -74.0     1.002
   -         3       79.832 /_  136.0     1.002   138.000        3-1     138.27 /_  166.0     1.002
11_SOUTHBND  1       78.486 /_   13.0   0.98509   138.000        1-2     135.94 /_   43.0   0.98509
   -         2       78.486 /_ -107.0   0.98509   138.000        2-3     135.94 /_  -77.0   0.98509
   -         3       78.486 /_  133.0   0.98509   138.000        3-1     135.94 /_  163.0   0.98509
7_JACKSNRD . 1       78.824 /_   12.8   0.98933   138.000        1-2     136.53 /_   42.8   0.98933
   -         2       78.824 /_ -107.2   0.98933   138.000        2-3     136.53 /_  -77.2   0.98933
   -         3       78.824 /_  132.8   0.98933   138.000        3-1     136.53 /_  162.8   0.98933
9_BEQUINE .. 1       83.094 /_   28.2    1.0429   138.000        1-2     143.92 /_   58.2    1.0429
   -         2       83.094 /_  -91.8    1.0429   138.000        2-3     143.92 /_  -61.8    1.0429
   -         3       83.094 /_  148.2    1.0429   138.000        3-1     143.92 /_  178.2    1.0429
30_SORENSON  1       78.521 /_   19.0   0.98553   138.000        1-2        136 /_   49.0   0.98553
   -         2       78.521 /_ -101.0   0.98553   138.000        2-3        136 /_  -71.0   0.98553
   -         3       78.521 /_  139.0   0.98553   138.000        3-1        136 /_  169.0   0.98553
13_CONCORD . 1       77.149 /_   11.6    0.9683   138.000        1-2     133.63 /_   41.6    0.9683
   -         2       77.149 /_ -108.4    0.9683   138.000        2-3     133.63 /_  -78.4    0.9683
   -         3       77.149 /_  131.6    0.9683   138.000        3-1     133.63 /_  161.6    0.9683
14_GOSHENJT  1       78.367 /_   11.7   0.98359   138.000        1-2     135.74 /_   41.7   0.98359
   -         2       78.367 /_ -108.3   0.98359   138.000        2-3     135.74 /_  -78.3   0.98359
   -         3       78.367 /_  131.7   0.98359   138.000        3-1     135.74 /_  161.7   0.98359
16_NE ...... 1       78.392 /_   12.1   0.98391   138.000        1-2     135.78 /_   42.1   0.98391
   -         2       78.392 /_ -107.9   0.98391   138.000        2-3     135.78 /_  -77.9   0.98391
   -         3       78.392 /_  132.1   0.98391   138.000        3-1     135.78 /_  162.1   0.98391
117_COREY .. 1       77.589 /_   10.9   0.97382   138.000        1-2     134.39 /_   40.9   0.97382
   -         2       77.589 /_ -109.1   0.97382   138.000        2-3     134.39 /_  -79.1   0.97382
   -         3       77.589 /_  130.9   0.97382   138.000        3-1     134.39 /_  160.9   0.97382
17_SORENSON  1       79.286 /_   13.9   0.99513   138.000        1-2     137.33 /_   43.9   0.99513
   -         2       79.286 /_ -106.1   0.99513   138.000        2-3     137.33 /_  -76.1   0.99513
   -         3       79.286 /_  133.9   0.99513   138.000        3-1     137.33 /_  163.9   0.99513
33_HAVILAND  1       77.408 /_   10.8   0.97156   138.000        1-2     134.08 /_   40.8   0.97156
   -         2       77.408 /_ -109.2   0.97156   138.000        2-3     134.08 /_  -79.2   0.97156
   -         3       77.408 /_  130.8   0.97156   138.000        3-1     134.08 /_  160.8   0.97156
20_ADAMS ... 1       76.333 /_   12.1   0.95806   138.000        1-2     132.21 /_   42.1   0.95806
   -         2       76.333 /_ -107.9   0.95806   138.000        2-3     132.21 /_  -77.9   0.95806
   -         3       76.333 /_  132.1   0.95806   138.000        3-1     132.21 /_  162.1   0.95806
21_JAY ..... 1       76.378 /_   13.7   0.95863   138.000        1-2     132.29 /_   43.7   0.95863
   -         2       76.378 /_ -106.3   0.95863   138.000        2-3     132.29 /_  -76.3   0.95863
   -         3       76.378 /_  133.7   0.95863   138.000        3-1     132.29 /_  163.7   0.95863
22_RANDOLPH  1       77.256 /_   16.3   0.96965   138.000        1-2     133.81 /_   46.3   0.96965
   -         2       77.256 /_ -103.7   0.96965   138.000        2-3     133.81 /_  -73.7   0.96965
   -         3       77.256 /_  136.3   0.96965   138.000        3-1     133.81 /_  166.3   0.96965
23_COLLCRNR  1       79.647 /_   21.2   0.99966   138.000        1-2     137.95 /_   51.2   0.99966
   -         2       79.647 /_  -98.8   0.99966   138.000        2-3     137.95 /_  -68.8   0.99966
   -         3       79.647 /_  141.2   0.99966   138.000        3-1     137.95 /_  171.2   0.99966
28_MULLIN .. 1       76.612 /_   13.8   0.96157   138.000        1-2      132.7 /_   43.8   0.96157
   -         2       76.612 /_ -106.2   0.96157   138.000        2-3      132.7 /_  -76.2   0.96157
   -         3       76.612 /_  133.8   0.96157   138.000        3-1      132.7 /_  163.8   0.96157
115_MEDFORD  1       76.513 /_   14.7   0.96032   138.000        1-2     132.52 /_   44.7   0.96032
   -         2       76.513 /_ -105.3   0.96032   138.000        2-3     132.52 /_  -75.3   0.96032
   -         3       76.513 /_  134.7   0.96032   138.000        3-1     132.52 /_  164.7   0.96032
29_GRANT ... 1       76.744 /_   12.8   0.96322   138.000        1-2     132.92 /_   42.8   0.96322
   -         2       76.744 /_ -107.2   0.96322   138.000        2-3     132.92 /_  -77.2   0.96322
   -         3       76.744 /_  132.8   0.96322   138.000        3-1     132.92 /_  162.8   0.96322
38_EASTLIMA  1       76.647 /_   17.0     0.962   138.000        1-2     132.76 /_   47.0     0.962
   -         2       76.647 /_ -103.0     0.962   138.000        2-3     132.76 /_  -73.0     0.962
   -         3       76.647 /_  137.0     0.962   138.000        3-1     132.76 /_  167.0     0.962
114_WMEDFORD 1       76.522 /_   14.7   0.96044   138.000        1-2     132.54 /_   44.7   0.96044
   -         2       76.522 /_ -105.3   0.96044   138.000        2-3     132.54 /_  -75.3   0.96044
   -         3       76.522 /_  134.7   0.96044   138.000        3-1     132.54 /_  164.7   0.96044
37_EASTLIMA  1       79.035 /_   11.9   0.99198   138.000        1-2     136.89 /_   41.9   0.99198
   -         2       79.035 /_ -108.1   0.99198   138.000        2-3     136.89 /_  -78.1   0.99198
   -         3       79.035 /_  131.9   0.99198   138.000        3-1     136.89 /_  161.9   0.99198
43_SKENTON . 1        77.96 /_   11.4   0.97848   138.000        1-2     135.03 /_   41.4   0.97848
   -         2        77.96 /_ -108.6   0.97848   138.000        2-3     135.03 /_  -78.6   0.97848
   -         3        77.96 /_  131.4   0.97848   138.000        3-1     135.03 /_  161.4   0.97848
35_WESTLIMA  1       78.135 /_   11.0   0.98068   138.000        1-2     135.33 /_   41.0   0.98068
   -         2       78.135 /_ -109.0   0.98068   138.000        2-3     135.33 /_  -79.0   0.98068
   -         3       78.135 /_  131.0   0.98068   138.000        3-1     135.33 /_  161.0   0.98068
39_NWLIBRTY  1        77.32 /_    8.5   0.97045   138.000        1-2     133.92 /_   38.5   0.97045
   -         2        77.32 /_ -111.5   0.97045   138.000        2-3     133.92 /_  -81.5   0.97045
   -         3        77.32 /_  128.5   0.97045   138.000        3-1     133.92 /_  158.5   0.97045
41_STIFFIN . 1       77.032 /_    7.0   0.96683   138.000        1-2     133.42 /_   37.0   0.96683
   -         2       77.032 /_ -113.0   0.96683   138.000        2-3     133.42 /_  -83.0   0.96683
   -         3       77.032 /_  127.0   0.96683   138.000        3-1     133.42 /_  157.0   0.96683
44_WMVERNON  1        78.48 /_   13.9   0.98501   138.000        1-2     135.93 /_   43.9   0.98501
   -         2        78.48 /_ -106.1   0.98501   138.000        2-3     135.93 /_  -76.1   0.98501
   -         3        78.48 /_  133.9   0.98501   138.000        3-1     135.93 /_  163.9   0.98501
45_NNEWARK . 1       78.611 /_   15.7   0.98665   138.000        1-2     136.16 /_   45.7   0.98665
   -         2       78.611 /_ -104.3   0.98665   138.000        2-3     136.16 /_  -74.3   0.98665
   -         3       78.611 /_  135.7   0.98665   138.000        3-1     136.16 /_  165.7   0.98665
47_CROOKSVL  1       81.033 /_   20.7    1.0171   138.000        1-2     140.35 /_   50.7    1.0171
   -         2       81.033 /_  -99.3    1.0171   138.000        2-3     140.35 /_  -69.3    1.0171
   -         3       81.033 /_  140.7    1.0171   138.000        3-1     140.35 /_  170.7    1.0171
48_ZANESVLL  1       81.318 /_   20.0    1.0206   138.000        1-2     140.85 /_   50.0    1.0206
   -         2       81.318 /_ -100.0    1.0206   138.000        2-3     140.85 /_  -70.0    1.0206
   -         3       81.318 /_  140.0    1.0206   138.000        3-1     140.85 /_  170.0    1.0206
50_WCAMBRDG  1       79.761 /_   18.9    1.0011   138.000        1-2     138.15 /_   48.9    1.0011
   -         2       79.761 /_ -101.1    1.0011   138.000        2-3     138.15 /_  -71.1    1.0011
   -         3       79.761 /_  138.9    1.0011   138.000        3-1     138.15 /_  168.9    1.0011
51_NEWCMRST  1       77.035 /_   16.3   0.96688   138.000        1-2     133.43 /_   46.3   0.96688
   -         2       77.035 /_ -103.7   0.96688   138.000        2-3     133.43 /_  -73.7   0.96688
   -         3       77.035 /_  136.3   0.96688   138.000        3-1     133.43 /_  166.3   0.96688
57_WNWPHIL1  1        77.33 /_   16.4   0.97058   138.000        1-2     133.94 /_   46.4   0.97058
   -         2        77.33 /_ -103.6   0.97058   138.000        2-3     133.94 /_  -73.6   0.97058
   -         3        77.33 /_  136.4   0.97058   138.000        3-1     133.94 /_  166.4   0.97058
52_SCOSHOCT  1       76.234 /_   15.4   0.95682   138.000        1-2     132.04 /_   45.4   0.95682
   -         2       76.234 /_ -104.6   0.95682   138.000        2-3     132.04 /_  -74.6   0.95682
   -         3       76.234 /_  135.4   0.95682   138.000        3-1     132.04 /_  165.4   0.95682
58_WNWPHIL2  1       76.411 /_   15.5   0.95904   138.000        1-2     132.35 /_   45.5   0.95904
   -         2       76.411 /_ -104.5   0.95904   138.000        2-3     132.35 /_  -74.5   0.95904
   -         3       76.411 /_  135.5   0.95904   138.000        3-1     132.35 /_  165.5   0.95904
53_WOOSTER . 1       75.371 /_   14.4   0.94598   138.000        1-2     130.55 /_   44.4   0.94598
   -         2       75.371 /_ -105.6   0.94598   138.000        2-3     130.55 /_  -75.6   0.94598
   -         3       75.371 /_  134.4   0.94598   138.000        3-1     130.55 /_  164.4   0.94598
60_SWKAMMER  1       79.129 /_   23.2   0.99316   138.000        1-2     137.06 /_   53.2   0.99316
   -         2       79.129 /_  -96.8   0.99316   138.000        2-3     137.06 /_  -66.8   0.99316
   -         3       79.129 /_  143.2   0.99316   138.000        3-1     137.06 /_  173.2   0.99316
67_SUMMERFL  1       81.242 /_   24.9    1.0197   138.000        1-2     140.72 /_   54.9    1.0197
   -         2       81.242 /_  -95.1    1.0197   138.000        2-3     140.72 /_  -65.1    1.0197
   -         3       81.242 /_  144.9    1.0197   138.000        3-1     140.72 /_  174.9    1.0197
63_TIDD .... 1       77.184 /_   22.8   0.96875   138.000        1-2     133.69 /_   52.8   0.96875
   -         2       77.184 /_  -97.2   0.96875   138.000        2-3     133.69 /_  -67.2   0.96875
   -         3       77.184 /_  142.8   0.96875   138.000        3-1     133.69 /_  172.8   0.96875
64_KAMMER .. 1       78.379 /_   24.5   0.98374   138.000        1-2     135.76 /_   54.5   0.98374
   -         2       78.379 /_  -95.5   0.98374   138.000        2-3     135.76 /_  -65.5   0.98374
   -         3       78.379 /_  144.5   0.98374   138.000        3-1     135.76 /_  174.5   0.98374
68_SPORN ... 1       79.933 /_   27.5    1.0032   138.000        1-2     138.45 /_   57.5    1.0032
   -         2       79.933 /_  -92.5    1.0032   138.000        2-3     138.45 /_  -62.5    1.0032
   -         3       79.933 /_  147.5    1.0032   138.000        3-1     138.45 /_  177.5    1.0032
81_KANAWHA . 1        79.42 /_   28.1   0.99681   138.000        1-2     137.56 /_   58.1   0.99681
   -         2        79.42 /_  -91.9   0.99681   138.000        2-3     137.56 /_  -61.9   0.99681
   -         3        79.42 /_  148.1   0.99681   138.000        3-1     137.56 /_  178.1   0.99681
75_STHPOINT  1       77.072 /_   22.9   0.96733   138.000        1-2     133.49 /_   52.9   0.96733
   -         2       77.072 /_  -97.1   0.96733   138.000        2-3     133.49 /_  -67.1   0.96733
   -         3       77.072 /_  142.9   0.96733   138.000        3-1     133.49 /_  172.9   0.96733
71_NPORTSMT  1       78.626 /_   22.1   0.98684   138.000        1-2     136.18 /_   52.1   0.98684
   -         2       78.626 /_  -97.9   0.98684   138.000        2-3     136.18 /_  -67.9   0.98684
   -         3       78.626 /_  142.1   0.98684   138.000        3-1     136.18 /_  172.1   0.98684
118_WHUNTNGD 1       75.646 /_   21.9   0.94944   138.000        1-2     131.02 /_   51.9   0.94944
   -         2       75.646 /_  -98.1   0.94944   138.000        2-3     131.02 /_  -68.1   0.94944
   -         3       75.646 /_  141.9   0.94944   138.000        3-1     131.02 /_  171.9   0.94944
78_CHEMICAL  1       79.947 /_   26.4    1.0034   138.000        1-2     138.47 /_   56.4    1.0034
   -         2       79.947 /_  -93.6    1.0034   138.000        2-3     138.47 /_  -63.6    1.0034
   -         3       79.947 /_  146.4    1.0034   138.000        3-1     138.47 /_  176.4    1.0034
82_LOGAN ... 1       78.777 /_   27.2   0.98874   138.000        1-2     136.45 /_   57.2   0.98874
   -         2       78.777 /_  -92.8   0.98874   138.000        2-3     136.45 /_  -62.8   0.98874
   -         3       78.777 /_  147.2   0.98874   138.000        3-1     136.45 /_  177.2   0.98874
79_CAPITLHL  1       80.409 /_   26.7    1.0092   138.000        1-2     139.27 /_   56.7    1.0092
   -         2       80.409 /_  -93.3    1.0092   138.000        2-3     139.27 /_  -63.3    1.0092
   -         3       80.409 /_  146.7    1.0092   138.000        3-1     139.27 /_  176.7    1.0092
96_BAILEYSV  1        79.09 /_   27.5   0.99267   138.000        1-2     136.99 /_   57.5   0.99267
   -         2        79.09 /_  -92.5   0.99267   138.000        2-3     136.99 /_  -62.5   0.99267
   -         3        79.09 /_  147.5   0.99267   138.000        3-1     136.99 /_  177.5   0.99267
97_SUNDIAL . 1        80.58 /_   27.9    1.0114   138.000        1-2     139.57 /_   57.9    1.0114
   -         2        80.58 /_  -92.1    1.0114   138.000        2-3     139.57 /_  -62.1    1.0114
   -         3        80.58 /_  147.9    1.0114   138.000        3-1     139.57 /_  177.9    1.0114
98_BRADLEY . 1       81.547 /_   27.4    1.0235   138.000        1-2     141.24 /_   57.4    1.0235
   -         2       81.547 /_  -92.6    1.0235   138.000        2-3     141.24 /_  -62.6    1.0235
   -         3       81.547 /_  147.4    1.0235   138.000        3-1     141.24 /_  177.4    1.0235
83_SPRIGG .. 1       78.441 /_   28.4   0.98452   138.000        1-2     135.86 /_   58.4   0.98452
   -         2       78.441 /_  -91.6   0.98452   138.000        2-3     135.86 /_  -61.6   0.98452
   -         3       78.441 /_  148.4   0.98452   138.000        3-1     135.86 /_  178.4   0.98452
84_BETSYLNE  1       78.061 /_   30.9   0.97975   138.000        1-2     135.21 /_   60.9   0.97975
   -         2       78.061 /_  -89.1   0.97975   138.000        2-3     135.21 /_  -59.1   0.97975
   -         3       78.061 /_  150.9   0.97975   138.000        3-1     135.21 /_ -179.1   0.97975
86_HAZARD .. 1       78.614 /_   31.1   0.98669   138.000        1-2     136.16 /_   61.1   0.98669
   -         2       78.614 /_  -88.9   0.98669   138.000        2-3     136.16 /_  -58.9   0.98669
   -         3       78.614 /_  151.1   0.98669   138.000        3-1     136.16 /_ -178.9   0.98669
88_FREMONT . 1       78.675 /_   35.6   0.98746   138.000        1-2     136.27 /_   65.6   0.98746
   -         2       78.675 /_  -84.4   0.98746   138.000        2-3     136.27 /_  -54.4   0.98746
   -         3       78.675 /_  155.6   0.98746   138.000        3-1     136.27 /_ -174.4   0.98746
93_TAZEWELL  1       78.631 /_   30.8   0.98691   138.000        1-2     136.19 /_   60.8   0.98691
   -         2       78.631 /_  -89.2   0.98691   138.000        2-3     136.19 /_  -59.2   0.98691
   -         3       78.631 /_  150.8   0.98691   138.000        3-1     136.19 /_ -179.2   0.98691
94_SWITCHBK  1       78.923 /_   28.6   0.99057   138.000        1-2      136.7 /_   58.6   0.99057
   -         2       78.923 /_  -91.4   0.99057   138.000        2-3      136.7 /_  -61.4   0.99057
   -         3       78.923 /_  148.6   0.99057   138.000        3-1      136.7 /_  178.6   0.99057
102_SMYTHE . 1       78.957 /_   32.3     0.991   138.000        1-2     136.76 /_   62.3     0.991
   -         2       78.957 /_  -87.7     0.991   138.000        2-3     136.76 /_  -57.7     0.991
   -         3       78.957 /_  152.3     0.991   138.000        3-1     136.76 /_ -177.7     0.991
95_CALDWELL  1       78.154 /_   27.7   0.98092   138.000        1-2     135.37 /_   57.7   0.98092
   -         2       78.154 /_  -92.3   0.98092   138.000        2-3     135.37 /_  -62.3   0.98092
   -         3       78.154 /_  147.7   0.98092   138.000        3-1     135.37 /_  177.7   0.98092
101_WYTHE .. 1       79.072 /_   29.6   0.99244   138.000        1-2     136.96 /_   59.6   0.99244
   -         2       79.072 /_  -90.4   0.99244   138.000        2-3     136.96 /_  -60.4   0.99244
   -         3       79.072 /_  149.6   0.99244   138.000        3-1     136.96 /_  179.6   0.99244
106_CLOVERDL 1        76.63 /_   20.3   0.96179   138.000        1-2     132.73 /_   50.3   0.96179
   -         2        76.63 /_  -99.7   0.96179   138.000        2-3     132.73 /_  -69.7   0.96179
   -         3        76.63 /_  140.3   0.96179   138.000        3-1     132.73 /_  170.3   0.96179
108_BLAINE . 1        77.03 /_   19.4   0.96681   138.000        1-2     133.42 /_   49.4   0.96681
   -         2        77.03 /_ -100.6   0.96681   138.000        2-3     133.42 /_  -70.6   0.96681
   -         3        77.03 /_  139.4   0.96681   138.000        3-1     133.42 /_  169.4   0.96681
109_FRANKLIN 1       77.082 /_   18.9   0.96746   138.000        1-2     133.51 /_   48.9   0.96746
   -         2       77.082 /_ -101.1   0.96746   138.000        2-3     133.51 /_  -71.1   0.96746
   -         3       77.082 /_  138.9   0.96746   138.000        3-1     133.51 /_  168.9   0.96746
